<?xml version="1.0" encoding="UTF-8"?>

<!-- generated on 2022-06-08 17:18:42 by Eclipse SUMO netedit Version 1.13.0
<configuration xmlns:xsi="http://www.w3.org/2001/XMLSchema-instance" xsi:noNamespaceSchemaLocation="http://sumo.dlr.de/xsd/netconvertConfiguration.xsd">

    <input>
        <sumo-net-file value="3-way-1k.net.xml"/>
    </input>

    <output>
        <output-file value="3-way-1k.net.xml"/>
    </output>

    <processing>
        <geometry.min-radius.fix.railways value="false"/>
        <geometry.max-grade.fix value="false"/>
        <offset.disable-normalization value="true"/>
        <lefthand value="false"/>
    </processing>

    <junctions>
        <no-turnarounds value="true"/>
        <junctions.corner-detail value="5"/>
        <junctions.limit-turn-speed value="5.5"/>
        <rectangular-lane-cut value="false"/>
    </junctions>

    <pedestrian>
        <walkingareas value="false"/>
    </pedestrian>

    <report>
        <aggregate-warnings value="5"/>
    </report>

</configuration>
-->

<net version="1.9" junctionCornerDetail="5" limitTurnSpeed="5.50" xmlns:xsi="http://www.w3.org/2001/XMLSchema-instance" xsi:noNamespaceSchemaLocation="http://sumo.dlr.de/xsd/net_file.xsd">

    <location netOffset="0.00,0.00" convBoundary="-957.20,20.00,50.00,80.00" origBoundary="-10000000000.00,-10000000000.00,10000000000.00,10000000000.00" projParameter="!"/>

    <edge id=":J1_0" function="internal">
        <lane id=":J1_0_0" index="0" speed="6.51" length="9.03" shape="48.40,57.20 48.05,54.75 47.00,53.00 45.25,51.95 42.80,51.60"/>
    </edge>
    <edge id=":J1_1" function="internal">
        <lane id=":J1_1_0" index="0" speed="13.89" length="14.40" shape="48.40,57.20 48.40,42.80"/>
    </edge>
    <edge id=":J1_2" function="internal">
        <lane id=":J1_2_0" index="0" speed="13.89" length="14.40" shape="51.60,42.80 51.60,57.20"/>
    </edge>
    <edge id=":J1_3" function="internal">
        <lane id=":J1_3_0" index="0" speed="8.00" length="14.19" shape="51.60,42.80 51.05,46.65 49.40,49.40 46.65,51.05 42.80,51.60"/>
    </edge>
    <edge id=":J1_4" function="internal">
        <lane id=":J1_4_0" index="0" speed="8.00" length="14.19" shape="42.80,48.40 46.65,48.95 49.40,50.60 51.05,53.35 51.60,57.20"/>
    </edge>

    <edge id="-E0" from="J1" to="J0" priority="-1">
        <lane id="-E0_0" index="0" speed="13.89" length="1000.00" shape="42.80,51.60 -957.20,51.60"/>
    </edge>
    <edge id="-E1" from="J2" to="J1" priority="-1">
        <lane id="-E1_0" index="0" speed="13.89" length="22.80" shape="48.40,80.00 48.40,57.20"/>
    </edge>
    <edge id="-E2" from="J3" to="J1" priority="-1">
        <lane id="-E2_0" index="0" speed="13.89" length="22.80" shape="51.60,20.00 51.60,42.80"/>
    </edge>
    <edge id="E0" from="J0" to="J1" priority="-1">
        <lane id="E0_0" index="0" speed="100.00" length="1000.00" shape="-957.20,48.40 42.80,48.40"/>
    </edge>
    <edge id="E1" from="J1" to="J2" priority="-1">
        <lane id="E1_0" index="0" speed="13.89" length="22.80" shape="51.60,57.20 51.60,80.00"/>
    </edge>
    <edge id="E2" from="J1" to="J3" priority="-1">
        <lane id="E2_0" index="0" speed="13.89" length="22.80" shape="48.40,42.80 48.40,20.00"/>
    </edge>

    <tlLogic id="J1" type="static" programID="0" offset="0">
        <phase duration="37" state="rrrrr"/>
    </tlLogic>

    <junction id="J0" type="dead_end" x="-957.20" y="50.00" incLanes="-E0_0" intLanes="" shape="-957.20,50.00 -957.20,53.20 -957.20,50.00"/>
    <junction id="J1" type="traffic_light" x="50.00" y="50.00" incLanes="-E1_0 -E2_0 E0_0" intLanes=":J1_0_0 :J1_1_0 :J1_2_0 :J1_3_0 :J1_4_0" shape="46.80,57.20 53.20,57.20 53.20,42.80 46.80,42.80 46.36,45.02 45.80,45.80 45.02,46.36 44.02,46.69 42.80,46.80 42.80,53.20 45.02,53.64 45.80,54.20 46.36,54.98 46.69,55.98">
        <request index="0" response="00000" foes="01000" cont="0"/>
        <request index="1" response="00000" foes="11000" cont="0"/>
        <request index="2" response="00000" foes="10000" cont="0"/>
        <request index="3" response="00011" foes="10011" cont="0"/>
        <request index="4" response="01110" foes="01110" cont="0"/>
    </junction>
    <junction id="J2" type="dead_end" x="50.00" y="80.00" incLanes="E1_0" intLanes="" shape="50.00,80.00 53.20,80.00 50.00,80.00"/>
    <junction id="J3" type="dead_end" x="50.00" y="20.00" incLanes="E2_0" intLanes="" shape="50.00,20.00 46.80,20.00 50.00,20.00"/>

    <connection from="-E1" to="-E0" fromLane="0" toLane="0" via=":J1_0_0" tl="J1" linkIndex="0" dir="r" state="O"/>
    <connection from="-E1" to="E2" fromLane="0" toLane="0" via=":J1_1_0" tl="J1" linkIndex="1" dir="s" state="O"/>
    <connection from="-E2" to="E1" fromLane="0" toLane="0" via=":J1_2_0" tl="J1" linkIndex="2" dir="s" state="O"/>
    <connection from="-E2" to="-E0" fromLane="0" toLane="0" via=":J1_3_0" tl="J1" linkIndex="3" dir="l" state="o"/>
    <connection from="E0" to="E1" fromLane="0" toLane="0" via=":J1_4_0" tl="J1" linkIndex="4" dir="l" state="o"/>

    <connection from=":J1_0" to="-E0" fromLane="0" toLane="0" dir="r" state="M"/>
    <connection from=":J1_1" to="E2" fromLane="0" toLane="0" dir="s" state="M"/>
    <connection from=":J1_2" to="E1" fromLane="0" toLane="0" dir="s" state="M"/>
    <connection from=":J1_3" to="-E0" fromLane="0" toLane="0" dir="l" state="M"/>
    <connection from=":J1_4" to="E1" fromLane="0" toLane="0" dir="l" state="M"/>

</net>
