<routes>
    <vehicle id="pedestrian" vClass="pedestrian" depart="0"><route edges="before_tl after_tl"/></vehicle>
    <vehicle id="bicycle" vClass="bicycle" depart="0"><route edges="before_tl after_tl"/></vehicle>
    <vehicle id="motorcycle" vClass="motorcycle" depart="0"><route edges="before_tl after_tl"/></vehicle>
    <vehicle id="moped" vClass="moped" depart="0"><route edges="before_tl after_tl"/></vehicle>
    <vehicle id="passenger" vClass="passenger" depart="0"><route edges="before_tl after_tl"/></vehicle>
    <vehicle id="emergency" vClass="emergency" depart="0"><route edges="before_tl after_tl"/></vehicle>
    <vehicle id="truck" vClass="truck" depart="0"><route edges="before_tl after_tl"/></vehicle>
    <vehicle id="bus" vClass="bus" depart="0"><route edges="before_tl after_tl"/></vehicle>
    <vehicle id="coach" vClass="coach" depart="0"><route edges="before_tl after_tl"/></vehicle>
</routes>