<?xml version="1.0" encoding="UTF-8"?>

<!-- generated on 2022-11-07 13:55:34 by Eclipse SUMO netedit Version 1.9.2
<configuration xmlns:xsi="http://www.w3.org/2001/XMLSchema-instance" xsi:noNamespaceSchemaLocation="http://sumo.dlr.de/xsd/netconvertConfiguration.xsd">

    <input>
        <sumo-net-file value="D:\git-projects\sim-bug-tools\strategies\highway\highway.net.xml"/>
    </input>

    <output>
        <output-file value="D:\git-projects\sim-bug-tools\strategies\highway\highway.net.xml"/>
    </output>

    <processing>
        <geometry.min-radius.fix.railways value="false"/>
        <geometry.max-grade.fix value="false"/>
        <offset.disable-normalization value="true"/>
        <lefthand value="false"/>
    </processing>

    <junctions>
        <no-internal-links value="true"/>
        <no-turnarounds value="true"/>
        <junctions.corner-detail value="5"/>
        <junctions.limit-turn-speed value="5.5"/>
        <rectangular-lane-cut value="false"/>
    </junctions>

    <pedestrian>
        <walkingareas value="false"/>
    </pedestrian>

    <report>
        <aggregate-warnings value="5"/>
    </report>

</configuration>
-->

<net version="1.9" junctionCornerDetail="5" limitTurnSpeed="5.50" xmlns:xsi="http://www.w3.org/2001/XMLSchema-instance" xsi:noNamespaceSchemaLocation="http://sumo.dlr.de/xsd/net_file.xsd">

    <location netOffset="0.00,0.00" convBoundary="0.00,0.00,10000.00,0.00" origBoundary="-10000000000.00,-10000000000.00,10000000000.00,10000000000.00" projParameter="!"/>

    <edge id="highway" from="gneJ15" to="gneJ16" priority="-1" length="10000.00">
        <lane id="highway_0" index="0" speed="100.00" length="10000.00" shape="0.00,-1.60 10000.00,-1.60"/>
    </edge>
    <edge id="warmup" from="gneJ16" to="gneJ15" priority="-1">
        <lane id="warmup_0" index="0" speed="100.00" length="10000.00" shape="10000.00,4.80 0.00,4.80"/>
        <lane id="warmup_1" index="1" speed="100.00" length="10000.00" shape="10000.00,1.60 0.00,1.60"/>
    </edge>

    <junction id="gneJ15" type="dead_end" x="0.00" y="0.00" incLanes="warmup_0 warmup_1" intLanes="" shape="0.00,0.00 0.00,6.40 0.00,0.00"/>
    <junction id="gneJ16" type="dead_end" x="10000.00" y="0.00" incLanes="highway_0" intLanes="" shape="10000.00,0.00 10000.00,-3.20 10000.00,0.00"/>

</net>
